*HEADING
cubit(/Users/masoud/Desktop/hole.inp): 11/02/2022: 16:28:11
version: 2022.4
**
********************************** P A R T S **********************************
*PART, NAME=Part-Default
**
********************************** N O D E S **********************************
*NODE, NSET=ALLNODES
    1923,    3.736000e+01,    3.236000e+01,    0.000000e+00
    1924,    3.730869e+01,    3.134832e+01,    0.000000e+00
    1925,    3.715530e+01,    3.034701e+01,    0.000000e+00
    1926,    3.690139e+01,    2.936637e+01,    0.000000e+00
    1927,    3.654958e+01,    2.841644e+01,    0.000000e+00
    1928,    3.610347e+01,    2.750698e+01,    0.000000e+00
    1929,    3.556763e+01,    2.664732e+01,    0.000000e+00
    1930,    3.494758e+01,    2.584628e+01,    0.000000e+00
    1931,    3.424967e+01,    2.511207e+01,    0.000000e+00
    1932,    3.348106e+01,    2.445224e+01,    0.000000e+00
    1933,    3.264964e+01,    2.387356e+01,    0.000000e+00
    1934,    3.176394e+01,    2.338195e+01,    0.000000e+00
    1935,    3.083305e+01,    2.298248e+01,    0.000000e+00
    1936,    2.986653e+01,    2.267923e+01,    0.000000e+00
    1937,    2.887428e+01,    2.247532e+01,    0.000000e+00
    1938,    2.786649e+01,    2.237283e+01,    0.000000e+00
    1939,    2.685351e+01,    2.237283e+01,    0.000000e+00
    1940,    2.584572e+01,    2.247532e+01,    0.000000e+00
    1941,    2.485347e+01,    2.267923e+01,    0.000000e+00
    1942,    2.388695e+01,    2.298248e+01,    0.000000e+00
** ... 1811 like lines cut
**
********************************** E L E M E N T S ****************************
*ELEMENT, TYPE=S4R, ELSET=EB1
       1,    1923,    1924,    8910,    8909
       2,    1924,    1925,    8911,    8910
       3,    1925,    1926,    8912,    8911
       4,    1926,    1927,    8913,    8912
       5,    1927,    1928,    8914,    8913
       6,    1928,    1929,    8915,    8914
       7,    1929,    1930,    8916,    8915
       8,    1930,    1931,    8917,    8916
       9,    1931,    1932,    8918,    8917
      10,    1932,    1933,    8919,    8918
      11,    1933,    1934,    8920,    8919
      12,    1934,    1935,    8921,    8920
      13,    1935,    1936,    8922,    8921
      14,    1936,    1937,    8923,    8922
      15,    1937,    1938,    8924,    8923
      16,    1938,    1939,    8925,    8924
      17,    1939,    1940,    8926,    8925
      18,    1940,    1941,    8927,    8926
      19,    1941,    1942,    8928,    8927
      20,    1942,    1943,    8929,    8928
** ... 1680 like lines cut
**
********************************** P R O P E R T I E S ************************
*SHELL SECTION, ELSET=EB1, SECTION INTEGRATION=SIMPSON, MATERIAL=Default-Steel
1.000000e+00
**
*END PART
**
**
**
********************************** E N D   P A R T S **********************************
**
**
********************************** A S S E M B L Y ************************************
**
*ASSEMBLY, NAME=ASSEMBLY1
**
*INSTANCE, NAME=Part-Default_1, PART=Part-Default
*END INSTANCE
**
*END ASSEMBLY
**
**
**
*MATERIAL, NAME = Default-Steel
*ELASTIC, TYPE=ISOTROPIC
2.068000e+05, 2.900000e-01
*DENSITY
7.000000e-06
*CONDUCTIVITY,TYPE=ISO
4.500000e-02
*SPECIFIC HEAT
5.000000e+02
**
**
************************************** H I S T O R Y *************************************
**
*PREPRINT
**
**************************************** S T E P 1 ***************************************
*STEP,INC=100,NAME=Default Set
**
*STATIC
1, 1, 1e-05, 1
**
**
**
**
*END STEP
