*HEADING
cubit(/Users/masoud/Desktop/rve2d.inp): 10/19/2022: 11:04:47
version: 2022.4
**
********************************** P A R T S **********************************
*PART, NAME=Part-Default
**
********************************** N O D E S **********************************
*NODE, NSET=ALLNODES
       1,    2.002763e+01,    1.897700e+00,    0.000000e+00
       2,    2.073843e+01,    1.194305e+00,    0.000000e+00
       3,    2.038303e+01,    1.546003e+00,    0.000000e+00
       4,    2.777237e+01,    8.302300e+00,    0.000000e+00
       5,    2.109012e+01,    1.549705e+00,    0.000000e+00
       6,    2.144182e+01,    1.905105e+00,    0.000000e+00
       7,    2.179352e+01,    2.260504e+00,    0.000000e+00
       8,    2.214522e+01,    2.615904e+00,    0.000000e+00
       9,    2.249691e+01,    2.971304e+00,    0.000000e+00
      10,    2.284861e+01,    3.326704e+00,    0.000000e+00
      11,    2.320031e+01,    3.682103e+00,    0.000000e+00
      12,    2.355201e+01,    4.037503e+00,    0.000000e+00
      13,    2.390370e+01,    4.392903e+00,    0.000000e+00
      14,    2.425540e+01,    4.748303e+00,    0.000000e+00
      15,    2.460710e+01,    5.103702e+00,    0.000000e+00
      16,    2.495879e+01,    5.459102e+00,    0.000000e+00
      17,    2.531049e+01,    5.814502e+00,    0.000000e+00
      18,    2.566219e+01,    6.169902e+00,    0.000000e+00
      19,    2.601389e+01,    6.525301e+00,    0.000000e+00
      20,    2.636558e+01,    6.880701e+00,    0.000000e+00
** ... 8181 like lines cut
**
********************************** E L E M E N T S ****************************
*ELEMENT, TYPE=S4R, ELSET=EB1
     805,    1601,    1300,    1299,    1304
     806,    1602,    1301,    1300,    1601
     807,    1602,    1601,    1304,    1305
     808,    1603,    1302,    1301,    1602
     809,    1603,    1602,    1305,    1306
     810,    1604,    1303,    1302,    1603
     811,    1604,    1603,    1306,    1307
     812,    1605,    1297,    1303,    1604
     813,    1605,    1604,    1307,    1308
     814,    1606,    1326,    1245,    1251
     815,    1607,    1325,    1326,    1606
     816,    1607,    1606,    1251,    1250
     817,    1608,    1324,    1325,    1607
     818,    1608,    1607,    1250,    1249
     819,    1609,    1323,    1324,    1608
     820,    1609,    1608,    1249,    1248
     821,    1610,    1322,    1323,    1609
     822,    1610,    1609,    1248,    1247
     823,    1611,    1321,    1322,    1610
     824,    1611,    1610,    1247,    1246
** ... 7174 like lines cut
*ELEMENT, TYPE=S4R, ELSET=EB2
       1,       2,       5,      45,       3
       2,       5,       6,      46,      45
       3,       6,       7,      47,      46
       4,       7,       8,      48,      47
       5,       8,       9,      49,      48
       6,       9,      10,      50,      49
       7,      10,      11,      51,      50
       8,      11,      12,      52,      51
       9,      12,      13,      53,      52
      10,      13,      14,      54,      53
      11,      14,      15,      55,      54
      12,      15,      16,      56,      55
      13,      16,      17,      57,      56
      14,      17,      18,      58,      57
      15,      18,      19,      59,      58
      16,      19,      20,      60,      59
      17,      20,      21,      61,      60
      18,      21,      22,      62,      61
      19,      22,      23,      63,      62
      20,      23,       4,      25,      63
** ... 807 like lines cut
**
********************************** P R O P E R T I E S ************************
*SHELL SECTION, ELSET=EB1, SECTION INTEGRATION=SIMPSON, MATERIAL=Default-Steel
1.000000e+00
*SHELL SECTION, ELSET=EB2, SECTION INTEGRATION=SIMPSON, MATERIAL=Default-Steel
1.000000e+00
**
*END PART
**
**
**
********************************** E N D   P A R T S **********************************
**
**
********************************** A S S E M B L Y ************************************
**
*ASSEMBLY, NAME=ASSEMBLY1
**
*INSTANCE, NAME=Part-Default_1, PART=Part-Default
*END INSTANCE
**
*END ASSEMBLY
**
**
**
*MATERIAL, NAME = Default-Steel
*ELASTIC, TYPE=ISOTROPIC
2.068000e+05, 2.900000e-01
*DENSITY
7.000000e-06
*CONDUCTIVITY,TYPE=ISO
4.500000e-02
*SPECIFIC HEAT
5.000000e+02
**
**
************************************** H I S T O R Y *************************************
**
*PREPRINT
**
**************************************** S T E P 1 ***************************************
*STEP,INC=100,NAME=Default Set
**
*STATIC
1, 1, 1e-05, 1
**
**
**
**
*END STEP
